nrt/data/DynaWaltz/Nordic_PlantController/Nordic.xiidm
<?xml version="1.0" encoding="UTF-8"?>
<iidm:network xmlns:iidm="http://www.itesla_project.eu/schema/iidm/1_0" xmlns:reft="http://www.powsybl.org/schema/iidm/ext/reference_terminals/1_0" id="Nordic32_corrige" caseDate="2019-07-30T16:39:00.000+02:00" forecastDistance="0" sourceFormat="NF">
    <iidm:substation id="_19fe9db0-63e5-4f87-a503-0867c0a01369" country="FR" tso="RTE">
        <iidm:voltageLevel id="1011_130" nominalV="130.0" highVoltageLimit="136.5" topologyKind="BUS_BREAKER">
            <iidm:busBreakerTopology>
                <iidm:bus id="1011_131" v="138.02597580159554" angle="57.60632633470135"/>
            </iidm:busBreakerTopology>
        </iidm:voltageLevel>
        <iidm:voltageLevel id="4011_400" nominalV="400.0" highVoltageLimit="420.0" topologyKind="BUS_BREAKER">
            <iidm:busBreakerTopology>
                <iidm:bus id="4011_401" v="408.96265920695953" angle="56.70744282146054"/>
            </iidm:busBreakerTopology>
        </iidm:voltageLevel>
        <iidm:voltageLevel id="B11___20" nominalV="20.0" highVoltageLimit="21.0" topologyKind="BUS_BREAKER">
            <iidm:busBreakerTopology>
                <iidm:bus id="B11___21" v="20.050554580775337" angle="54.806237020564346"/>
            </iidm:busBreakerTopology>
            <iidm:load id="11_1" loadType="UNDEFINED" p0="199.99400329589844" q0="68.7958984375" bus="B11___21" connectableBus="B11___21" p="199.99400329589844" q="68.7958984375"/>
        </iidm:voltageLevel>
        <iidm:voltageLevel id="BG09__15" nominalV="15.0" highVoltageLimit="15.750001907348633" topologyKind="BUS_BREAKER">
            <iidm:busBreakerTopology>
                <iidm:bus id="BG09__11" v="14.981999397277832" angle="62.62544127957224"/>
            </iidm:busBreakerTopology>
            <iidm:generator id="g09" energySource="HYDRO" minP="0.0" maxP="9999.0" voltageRegulatorOn="true" targetP="668.5" targetV="14.981999397277832" targetQ="201.2519989013672" bus="BG09__11" connectableBus="BG09__11" p="-668.5" q="-201.5494673843493">
                <iidm:property name="genreCvg" value="AUTRE"/>
                <iidm:reactiveCapabilityCurve>
                    <iidm:point p="0.0" minQ="-1000.0" maxQ="1000.0"/>
                    <iidm:point p="9999.0" minQ="-1000.0" maxQ="1000.0"/>
                </iidm:reactiveCapabilityCurve>
            </iidm:generator>
        </iidm:voltageLevel>
        <iidm:twoWindingsTransformer id="Tr1011-4011" r="0.0" x="1.3519998788833618" g="0.0" b="0.0" ratedU1="400.0" ratedU2="130.0" voltageLevelId1="4011_400" bus1="4011_401" connectableBus1="4011_401" voltageLevelId2="1011_130" bus2="1011_131" connectableBus2="1011_131" p1="-224.07353608445342" q1="196.54353112324222" p2="224.07353608445345" q2="-190.40746427330993">
            <iidm:ratioTapChanger lowTapPosition="0" tapPosition="0" loadTapChangingCapabilities="false">
                <iidm:step r="0.0" x="0.0" g="0.0" b="0.0" rho="1.0526316165924072"/>
                <iidm:step r="0.0" x="0.0" g="0.0" b="0.0" rho="1.0416667461395264"/>
                <iidm:step r="0.0" x="0.0" g="0.0" b="0.0" rho="1.0309277772903442"/>
                <iidm:step r="0.0" x="0.0" g="0.0" b="0.0" rho="1.0204081535339355"/>
                <iidm:step r="0.0" x="0.0" g="0.0" b="0.0" rho="1.0101009607315063"/>
                <iidm:step r="0.0" x="0.0" g="0.0" b="0.0" rho="1.0"/>
                <iidm:step r="0.0" x="0.0" g="0.0" b="0.0" rho="0.9900990128517151"/>
                <iidm:step r="0.0" x="0.0" g="0.0" b="0.0" rho="0.9803921580314636"/>
                <iidm:step r="0.0" x="0.0" g="0.0" b="0.0" rho="0.9708738327026367"/>
                <iidm:step r="0.0" x="0.0" g="0.0" b="0.0" rho="0.9615384936332703"/>
                <iidm:step r="0.0" x="0.0" g="0.0" b="0.0" rho="0.9523810148239136"/>
            </iidm:ratioTapChanger>
            <iidm:currentLimits1 permanentLimit="5551.43994140625"/>
            <iidm:currentLimits2 permanentLimit="5551.43994140625"/>
        </iidm:twoWindingsTransformer>
        <iidm:twoWindingsTransformer id="Tr11-1011" r="0.0" x="0.10000003129243851" g="0.0" b="0.0" ratedU1="130.0" ratedU2="20.0" voltageLevelId1="1011_130" bus1="1011_131" connectableBus1="1011_131" voltageLevelId2="B11___20" bus2="B11___21" connectableBus2="B11___21" p1="199.9939054960288" q1="79.92212085549379" p2="-199.99390549602876" q2="-68.79582983491996">
            <iidm:ratioTapChanger regulating="true" lowTapPosition="0" tapPosition="24" loadTapChangingCapabilities="true" targetV="20.0">
                <iidm:terminalRef id="Tr11-1011" side="TWO"/>
                <iidm:step r="0.0" x="0.0" g="0.0" b="0.0" rho="1.25"/>
                <iidm:step r="0.0" x="0.0" g="0.0" b="0.0" rho="1.2345678806304932"/>
                <iidm:step r="0.0" x="0.0" g="0.0" b="0.0" rho="1.2195122241973877"/>
                <iidm:step r="0.0" x="0.0" g="0.0" b="0.0" rho="1.2048193216323853"/>
                <iidm:step r="0.0" x="0.0" g="0.0" b="0.0" rho="1.1904761791229248"/>
                <iidm:step r="0.0" x="0.0" g="0.0" b="0.0" rho="1.1764705181121826"/>
                <iidm:step r="0.0" x="0.0" g="0.0" b="0.0" rho="1.1627906560897827"/>
                <iidm:step r="0.0" x="0.0" g="0.0" b="0.0" rho="1.1494252681732178"/>
                <iidm:step r="0.0" x="0.0" g="0.0" b="0.0" rho="1.1363636255264282"/>
                <iidm:step r="0.0" x="0.0" g="0.0" b="0.0" rho="1.1235954761505127"/>
                <iidm:step r="0.0" x="0.0" g="0.0" b="0.0" rho="1.1111111640930176"/>
                <iidm:step r="0.0" x="0.0" g="0.0" b="0.0" rho="1.0989010334014893"/>
                <iidm:step r="0.0" x="0.0" g="0.0" b="0.0" rho="1.08695650100708"/>
                <iidm:step r="0.0" x="0.0" g="0.0" b="0.0" rho="1.0752688646316528"/>
                <iidm:step r="0.0" x="0.0" g="0.0" b="0.0" rho="1.063829779624939"/>
                <iidm:step r="0.0" x="0.0" g="0.0" b="0.0" rho="1.0526316165924072"/>
                <iidm:step r="0.0" x="0.0" g="0.0" b="0.0" rho="1.0416667461395264"/>
                <iidm:step r="0.0" x="0.0" g="0.0" b="0.0" rho="1.0309277772903442"/>
                <iidm:step r="0.0" x="0.0" g="0.0" b="0.0" rho="1.0204081535339355"/>
                <iidm:step r="0.0" x="0.0" g="0.0" b="0.0" rho="1.0101009607315063"/>
                <iidm:step r="0.0" x="0.0" g="0.0" b="0.0" rho="1.0"/>
                <iidm:step r="0.0" x="0.0" g="0.0" b="0.0" rho="0.9900990128517151"/>
                <iidm:step r="0.0" x="0.0" g="0.0" b="0.0" rho="0.9803921580314636"/>
                <iidm:step r="0.0" x="0.0" g="0.0" b="0.0" rho="0.9708738327026367"/>
                <iidm:step r="0.0" x="0.0" g="0.0" b="0.0" rho="0.9615384936332703"/>
                <iidm:step r="0.0" x="0.0" g="0.0" b="0.0" rho="0.9523810148239136"/>
                <iidm:step r="0.0" x="0.0" g="0.0" b="0.0" rho="0.943396270275116"/>
                <iidm:step r="0.0" x="0.0" g="0.0" b="0.0" rho="0.9345793724060059"/>
                <iidm:step r="0.0" x="0.0" g="0.0" b="0.0" rho="0.9259259104728699"/>
                <iidm:step r="0.0" x="0.0" g="0.0" b="0.0" rho="0.9174311757087708"/>
                <iidm:step r="0.0" x="0.0" g="0.0" b="0.0" rho="0.9090908765792847"/>
                <iidm:step r="0.0" x="0.0" g="0.0" b="0.0" rho="0.9009009003639221"/>
                <iidm:step r="0.0" x="0.0" g="0.0" b="0.0" rho="0.8928571343421936"/>
            </iidm:ratioTapChanger>
            <iidm:currentLimits1 permanentLimit="11547.0"/>
            <iidm:currentLimits2 permanentLimit="11547.0"/>
        </iidm:twoWindingsTransformer>
        <iidm:twoWindingsTransformer id="Tr4011-g9" r="0.0" x="0.03375000134110451" g="0.0" b="0.0" ratedU1="400.0" ratedU2="15.0" voltageLevelId1="4011_400" bus1="4011_401" connectableBus1="4011_401" voltageLevelId2="BG09__15" bus2="BG09__11" connectableBus2="BG09__11" p1="-668.4999218528261" q1="-128.2464870001094" p2="668.4999218528261" q2="201.5494673843493">
            <iidm:ratioTapChanger lowTapPosition="0" tapPosition="10" loadTapChangingCapabilities="false">
                <iidm:step r="0.0" x="0.0" g="0.0" b="0.0" rho="1.0526316165924072"/>
                <iidm:step r="0.0" x="0.0" g="0.0" b="0.0" rho="1.0416667461395264"/>
                <iidm:step r="0.0" x="0.0" g="0.0" b="0.0" rho="1.0309277772903442"/>
                <iidm:step r="0.0" x="0.0" g="0.0" b="0.0" rho="1.0204081535339355"/>
                <iidm:step r="0.0" x="0.0" g="0.0" b="0.0" rho="1.0101009607315063"/>
                <iidm:step r="0.0" x="0.0" g="0.0" b="0.0" rho="1.0"/>
                <iidm:step r="0.0" x="0.0" g="0.0" b="0.0" rho="0.9900990128517151"/>
                <iidm:step r="0.0" x="0.0" g="0.0" b="0.0" rho="0.9803921580314636"/>
                <iidm:step r="0.0" x="0.0" g="0.0" b="0.0" rho="0.9708738327026367"/>
                <iidm:step r="0.0" x="0.0" g="0.0" b="0.0" rho="0.9615384936332703"/>
                <iidm:step r="0.0" x="0.0" g="0.0" b="0.0" rho="0.9523810148239136"/>
            </iidm:ratioTapChanger>
            <iidm:currentLimits1 permanentLimit="38490.0"/>
            <iidm:currentLimits2 permanentLimit="38490.0"/>
        </iidm:twoWindingsTransformer>
    </iidm:substation>
    <iidm:substation id="_2733fb31-de68-473c-bbb7-234a34f4d82f" country="FR" tso="RTE">
        <iidm:voltageLevel id="1012_130" nominalV="130.0" highVoltageLimit="136.5" topologyKind="BUS_BREAKER">
            <iidm:busBreakerTopology>
                <iidm:bus id="1012_131" v="138.2372591371978" angle="61.1564883248776"/>
            </iidm:busBreakerTopology>
        </iidm:voltageLevel>
        <iidm:voltageLevel id="4012_400" nominalV="400.0" highVoltageLimit="420.0" topologyKind="BUS_BREAKER">
            <iidm:busBreakerTopology>
                <iidm:bus id="4012_401" v="409.40638405394895" angle="58.717536026177974"/>
            </iidm:busBreakerTopology>
            <iidm:shunt id="4012-Ind" bPerSection="-6.249999860301614E-4" maximumSectionCount="1" currentSectionCount="1" bus="4012_401" connectableBus="4012_401" q="104.75848972354622">
                <iidm:property name="qMax" value="-100"/>
            </iidm:shunt>
        </iidm:voltageLevel>
        <iidm:voltageLevel id="B12___20" nominalV="20.0" highVoltageLimit="21.0" topologyKind="BUS_BREAKER">
            <iidm:busBreakerTopology>
                <iidm:bus id="B12___21" v="19.949676461744502" angle="58.31938427723552"/>
            </iidm:busBreakerTopology>
            <iidm:load id="12_1" loadType="UNDEFINED" p0="300.00201416015625" q0="83.80120086669922" bus="B12___21" connectableBus="B12___21" p="300.00201416015625" q="83.80120086669922"/>
        </iidm:voltageLevel>
        <iidm:voltageLevel id="BG01__15" nominalV="15.0" highVoltageLimit="15.750001907348633" topologyKind="BUS_BREAKER">
            <iidm:busBreakerTopology>
                <iidm:bus id="BG01__11" v="16.025999069213867" angle="66.83941336564301"/>
            </iidm:busBreakerTopology>
            <iidm:generator id="g01" energySource="HYDRO" minP="0.0" maxP="9999.0" voltageRegulatorOn="true" targetP="600.0" targetV="16.025999069213867" targetQ="58.34000015258789" bus="BG01__11" connectableBus="BG01__11" p="-600.0" q="-58.47824965141195">
                <iidm:property name="genreCvg" value="AUTRE"/>
                <iidm:reactiveCapabilityCurve>
                    <iidm:point p="0.0" minQ="-800.0" maxQ="800.0"/>
                    <iidm:point p="9999.0" minQ="-800.0" maxQ="800.0"/>
                </iidm:reactiveCapabilityCurve>
            </iidm:generator>
        </iidm:voltageLevel>
        <iidm:voltageLevel id="BG10__15" nominalV="15.0" highVoltageLimit="15.750001907348633" topologyKind="BUS_BREAKER">
            <iidm:busBreakerTopology>
                <iidm:bus id="BG10__11" v="15.235500335693361" angle="65.2419770761068"/>
            </iidm:busBreakerTopology>
            <iidm:generator id="g10" energySource="HYDRO" minP="0.0" maxP="9999.0" voltageRegulatorOn="true" targetP="600.0" targetV="15.23550033569336" targetQ="255.7010040283203" bus="BG10__11" connectableBus="BG10__11" p="-600.0" q="-255.88068069174113">
                <iidm:property name="genreCvg" value="AUTRE"/>
                <iidm:reactiveCapabilityCurve>
                    <iidm:point p="0.0" minQ="-800.0" maxQ="800.0"/>
                    <iidm:point p="9999.0" minQ="-800.0" maxQ="800.0"/>
                </iidm:reactiveCapabilityCurve>
            </iidm:generator>
        </iidm:voltageLevel>
        <iidm:twoWindingsTransformer id="Tr1012-4012" r="0.0" x="1.3519998788833618" g="0.0" b="0.0" ratedU1="400.0" ratedU2="130.0" voltageLevelId1="4012_400" bus1="4012_401" connectableBus1="4012_401" voltageLevelId2="1012_130" bus2="1012_131" connectableBus2="1012_131" p1="-609.4138942041077" q1="201.8077013164496" p2="609.4138942041078" q2="-173.40479552141977">
            <iidm:ratioTapChanger lowTapPosition="0" tapPosition="0" loadTapChangingCapabilities="false">
                <iidm:step r="0.0" x="0.0" g="0.0" b="0.0" rho="1.0526316165924072"/>
                <iidm:step r="0.0" x="0.0" g="0.0" b="0.0" rho="1.0416667461395264"/>
                <iidm:step r="0.0" x="0.0" g="0.0" b="0.0" rho="1.0309277772903442"/>
                <iidm:step r="0.0" x="0.0" g="0.0" b="0.0" rho="1.0204081535339355"/>
                <iidm:step r="0.0" x="0.0" g="0.0" b="0.0" rho="1.0101009607315063"/>
                <iidm:step r="0.0" x="0.0" g="0.0" b="0.0" rho="1.0"/>
                <iidm:step r="0.0" x="0.0" g="0.0" b="0.0" rho="0.9900990128517151"/>
                <iidm:step r="0.0" x="0.0" g="0.0" b="0.0" rho="0.9803921580314636"/>
                <iidm:step r="0.0" x="0.0" g="0.0" b="0.0" rho="0.9708738327026367"/>
                <iidm:step r="0.0" x="0.0" g="0.0" b="0.0" rho="0.9615384936332703"/>
                <iidm:step r="0.0" x="0.0" g="0.0" b="0.0" rho="0.9523810148239136"/>
            </iidm:ratioTapChanger>
            <iidm:currentLimits1 permanentLimit="5551.43994140625"/>
            <iidm:currentLimits2 permanentLimit="5551.43994140625"/>
        </iidm:twoWindingsTransformer>
        <iidm:twoWindingsTransformer id="Tr1012-g1" r="0.0" x="0.04218750819563866" g="0.0" b="0.0" ratedU1="130.0" ratedU2="15.0" voltageLevelId1="1012_130" bus1="1012_131" connectableBus1="1012_131" voltageLevelId2="BG01__15" bus2="BG01__11" connectableBus2="BG01__11" p1="-599.9999809741211" q1="1.2173189516805971" p2="599.999980974121" q2="58.47824965141195">
            <iidm:ratioTapChanger lowTapPosition="0" tapPosition="5" loadTapChangingCapabilities="false">
                <iidm:step r="0.0" x="0.0" g="0.0" b="0.0" rho="1.0526316165924072"/>
                <iidm:step r="0.0" x="0.0" g="0.0" b="0.0" rho="1.0416667461395264"/>
                <iidm:step r="0.0" x="0.0" g="0.0" b="0.0" rho="1.0309277772903442"/>
                <iidm:step r="0.0" x="0.0" g="0.0" b="0.0" rho="1.0204081535339355"/>
                <iidm:step r="0.0" x="0.0" g="0.0" b="0.0" rho="1.0101009607315063"/>
                <iidm:step r="0.0" x="0.0" g="0.0" b="0.0" rho="1.0"/>
                <iidm:step r="0.0" x="0.0" g="0.0" b="0.0" rho="0.9900990128517151"/>
                <iidm:step r="0.0" x="0.0" g="0.0" b="0.0" rho="0.9803921580314636"/>
                <iidm:step r="0.0" x="0.0" g="0.0" b="0.0" rho="0.9708738327026367"/>
                <iidm:step r="0.0" x="0.0" g="0.0" b="0.0" rho="0.9615384936332703"/>
                <iidm:step r="0.0" x="0.0" g="0.0" b="0.0" rho="0.9523810148239136"/>
            </iidm:ratioTapChanger>
            <iidm:currentLimits1 permanentLimit="30791.998046875"/>
            <iidm:currentLimits2 permanentLimit="30791.998046875"/>
        </iidm:twoWindingsTransformer>
        <iidm:twoWindingsTransformer id="Tr12-1012" r="0.0" x="0.06666676700115204" g="0.0" b="0.0" ratedU1="130.0" ratedU2="20.0" voltageLevelId1="1012_130" bus1="1012_131" connectableBus1="1012_131" voltageLevelId2="B12___20" bus2="B12___21" connectableBus2="B12___21" p1="300.00195878790936" q1="100.05348669392275" p2="-300.00195878790936" q2="-83.8011432294706">
            <iidm:ratioTapChanger regulating="true" lowTapPosition="0" tapPosition="25" loadTapChangingCapabilities="true" targetV="20.0">
                <iidm:terminalRef id="Tr12-1012" side="TWO"/>
                <iidm:step r="0.0" x="0.0" g="0.0" b="0.0" rho="1.25"/>
                <iidm:step r="0.0" x="0.0" g="0.0" b="0.0" rho="1.2345678806304932"/>
                <iidm:step r="0.0" x="0.0" g="0.0" b="0.0" rho="1.2195122241973877"/>
                <iidm:step r="0.0" x="0.0" g="0.0" b="0.0" rho="1.2048193216323853"/>
                <iidm:step r="0.0" x="0.0" g="0.0" b="0.0" rho="1.1904761791229248"/>
                <iidm:step r="0.0" x="0.0" g="0.0" b="0.0" rho="1.1764705181121826"/>
                <iidm:step r="0.0" x="0.0" g="0.0" b="0.0" rho="1.1627906560897827"/>
                <iidm:step r="0.0" x="0.0" g="0.0" b="0.0" rho="1.1494252681732178"/>
                <iidm:step r="0.0" x="0.0" g="0.0" b="0.0" rho="1.1363636255264282"/>
                <iidm:step r="0.0" x="0.0" g="0.0" b="0.0" rho="1.1235954761505127"/>
                <iidm:step r="0.0" x="0.0" g="0.0" b="0.0" rho="1.1111111640930176"/>
                <iidm:step r="0.0" x="0.0" g="0.0" b="0.0" rho="1.0989010334014893"/>
                <iidm:step r="0.0" x="0.0" g="0.0" b="0.0" rho="1.08695650100708"/>
                <iidm:step r="0.0" x="0.0" g="0.0" b="0.0" rho="1.0752688646316528"/>
                <iidm:step r="0.0" x="0.0" g="0.0" b="0.0" rho="1.063829779624939"/>
                <iidm:step r="0.0" x="0.0" g="0.0" b="0.0" rho="1.0526316165924072"/>
                <iidm:step r="0.0" x="0.0" g="0.0" b="0.0" rho="1.0416667461395264"/>
                <iidm:step r="0.0" x="0.0" g="0.0" b="0.0" rho="1.0309277772903442"/>
                <iidm:step r="0.0" x="0.0" g="0.0" b="0.0" rho="1.0204081535339355"/>
                <iidm:step r="0.0" x="0.0" g="0.0" b="0.0" rho="1.0101009607315063"/>
                <iidm:step r="0.0" x="0.0" g="0.0" b="0.0" rho="1.0"/>
                <iidm:step r="0.0" x="0.0" g="0.0" b="0.0" rho="0.9900990128517151"/>
                <iidm:step r="0.0" x="0.0" g="0.0" b="0.0" rho="0.9803921580314636"/>
                <iidm:step r="0.0" x="0.0" g="0.0" b="0.0" rho="0.9708738327026367"/>
                <iidm:step r="0.0" x="0.0" g="0.0" b="0.0" rho="0.9615384936332703"/>
                <iidm:step r="0.0" x="0.0" g="0.0" b="0.0" rho="0.9523810148239136"/>
                <iidm:step r="0.0" x="0.0" g="0.0" b="0.0" rho="0.943396270275116"/>
                <iidm:step r="0.0" x="0.0" g="0.0" b="0.0" rho="0.9345793724060059"/>
                <iidm:step r="0.0" x="0.0" g="0.0" b="0.0" rho="0.9259259104728699"/>
                <iidm:step r="0.0" x="0.0" g="0.0" b="0.0" rho="0.9174311757087708"/>
                <iidm:step r="0.0" x="0.0" g="0.0" b="0.0" rho="0.9090908765792847"/>
                <iidm:step r="0.0" x="0.0" g="0.0" b="0.0" rho="0.9009009003639221"/>
                <iidm:step r="0.0" x="0.0" g="0.0" b="0.0" rho="0.8928571343421936"/>
            </iidm:ratioTapChanger>
            <iidm:currentLimits1 permanentLimit="17320.5"/>
            <iidm:currentLimits2 permanentLimit="17320.5"/>
        </iidm:twoWindingsTransformer>
        <iidm:twoWindingsTransformer id="Tr4012-g10" r="0.0" x="0.04218750074505806" g="0.0" b="0.0" ratedU1="400.0" ratedU2="15.0" voltageLevelId1="4012_400" bus1="4012_401" connectableBus1="4012_401" voltageLevelId2="BG10__15" bus2="BG10__11" connectableBus2="BG10__11" p1="-599.9999541824292" q1="-178.5513470744849" p2="599.9999541824293" q2="255.88068069174113">
            <iidm:ratioTapChanger lowTapPosition="0" tapPosition="10" loadTapChangingCapabilities="false">
                <iidm:step r="0.0" x="0.0" g="0.0" b="0.0" rho="1.0526316165924072"/>
                <iidm:step r="0.0" x="0.0" g="0.0" b="0.0" rho="1.0416667461395264"/>
                <iidm:step r="0.0" x="0.0" g="0.0" b="0.0" rho="1.0309277772903442"/>
                <iidm:step r="0.0" x="0.0" g="0.0" b="0.0" rho="1.0204081535339355"/>
                <iidm:step r="0.0" x="0.0" g="0.0" b="0.0" rho="1.0101009607315063"/>
                <iidm:step r="0.0" x="0.0" g="0.0" b="0.0" rho="1.0"/>
                <iidm:step r="0.0" x="0.0" g="0.0" b="0.0" rho="0.9900990128517151"/>
                <iidm:step r="0.0" x="0.0" g="0.0" b="0.0" rho="0.9803921580314636"/>
                <iidm:step r="0.0" x="0.0" g="0.0" b="0.0" rho="0.9708738327026367"/>
                <iidm:step r="0.0" x="0.0" g="0.0" b="0.0" rho="0.9615384936332703"/>
                <iidm:step r="0.0" x="0.0" g="0.0" b="0.0" rho="0.9523810148239136"/>
            </iidm:ratioTapChanger>
            <iidm:currentLimits1 permanentLimit="30792.0"/>
            <iidm:currentLimits2 permanentLimit="30792.0"/>
        </iidm:twoWindingsTransformer>
    </iidm:substation>
    <iidm:substation id="_3dd84004-1feb-4d62-bf15-4ae3dcc30bc4" country="FR" tso="RTE">
        <iidm:voltageLevel id="1013_130" nominalV="130.0" highVoltageLimit="136.5" topologyKind="BUS_BREAKER">
            <iidm:busBreakerTopology>
                <iidm:bus id="1013_131" v="137.12373855041076" angle="65.51143502457133"/>
            </iidm:busBreakerTopology>
        </iidm:voltageLevel>
        <iidm:voltageLevel id="B13___20" nominalV="20.0" highVoltageLimit="21.0" topologyKind="BUS_BREAKER">
            <iidm:busBreakerTopology>
                <iidm:bus id="B13___21" v="19.914199265144582" angle="62.673420905606285"/>
            </iidm:busBreakerTopology>
            <iidm:load id="13_1" loadType="UNDEFINED" p0="100.00299835205078" q0="34.40169906616211" bus="B13___21" connectableBus="B13___21" p="100.00299835205078" q="34.40169906616211"/>
        </iidm:voltageLevel>
        <iidm:voltageLevel id="BG02__15" nominalV="15.0" highVoltageLimit="15.750001907348633" topologyKind="BUS_BREAKER">
            <iidm:busBreakerTopology>
                <iidm:bus id="BG02__11" v="15.847498893737791" angle="69.37042455263237"/>
            </iidm:busBreakerTopology>
            <iidm:generator id="g02" energySource="HYDRO" minP="0.0" maxP="9999.0" voltageRegulatorOn="true" targetP="300.0" targetV="15.847498893737793" targetQ="17.233400344848633" bus="BG02__11" connectableBus="BG02__11" p="-300.0" q="-17.299017415506736">
                <iidm:property name="genreCvg" value="AUTRE"/>
                <iidm:reactiveCapabilityCurve>
                    <iidm:point p="0.0" minQ="-600.0" maxQ="600.0"/>
                    <iidm:point p="9999.0" minQ="-600.0" maxQ="600.0"/>
                </iidm:reactiveCapabilityCurve>
            </iidm:generator>
        </iidm:voltageLevel>
        <iidm:twoWindingsTransformer id="Tr1013-g2" r="0.0" x="0.056250009685754776" g="0.0" b="0.0" ratedU1="130.0" ratedU2="15.0" voltageLevelId1="1013_130" bus1="1013_131" connectableBus1="1013_131" voltageLevelId2="BG02__15" bus2="BG02__11" connectableBus2="BG02__11" p1="-299.9999968727096" q1="2.9258323545263862" p2="299.9999968727096" q2="17.299017415506736">
            <iidm:ratioTapChanger lowTapPosition="0" tapPosition="5" loadTapChangingCapabilities="false">
                <iidm:step r="0.0" x="0.0" g="0.0" b="0.0" rho="1.0526316165924072"/>
                <iidm:step r="0.0" x="0.0" g="0.0" b="0.0" rho="1.0416667461395264"/>
                <iidm:step r="0.0" x="0.0" g="0.0" b="0.0" rho="1.0309277772903442"/>
                <iidm:step r="0.0" x="0.0" g="0.0" b="0.0" rho="1.0204081535339355"/>
                <iidm:step r="0.0" x="0.0" g="0.0" b="0.0" rho="1.0101009607315063"/>
                <iidm:step r="0.0" x="0.0" g="0.0" b="0.0" rho="1.0"/>
                <iidm:step r="0.0" x="0.0" g="0.0" b="0.0" rho="0.9900990128517151"/>
                <iidm:step r="0.0" x="0.0" g="0.0" b="0.0" rho="0.9803921580314636"/>
                <iidm:step r="0.0" x="0.0" g="0.0" b="0.0" rho="0.9708738327026367"/>
                <iidm:step r="0.0" x="0.0" g="0.0" b="0.0" rho="0.9615384936332703"/>
                <iidm:step r="0.0" x="0.0" g="0.0" b="0.0" rho="0.9523810148239136"/>
            </iidm:ratioTapChanger>
            <iidm:currentLimits1 permanentLimit="23094.0"/>
            <iidm:currentLimits2 permanentLimit="23094.0"/>
        </iidm:twoWindingsTransformer>
        <iidm:twoWindingsTransformer id="Tr13-1013" r="0.0" x="0.20000006258487701" g="0.0" b="0.0" ratedU1="130.0" ratedU2="20.0" voltageLevelId1="1013_130" bus1="1013_131" connectableBus1="1013_131" voltageLevelId2="B13___20" bus2="B13___21" connectableBus2="B13___21" p1="100.00299254129527" q1="40.04202163753177" p2="-100.00299254129527" q2="-34.40169179236948">
            <iidm:ratioTapChanger regulating="true" lowTapPosition="0" tapPosition="24" loadTapChangingCapabilities="true" targetV="20.0">
                <iidm:terminalRef id="Tr13-1013" side="TWO"/>
                <iidm:step r="0.0" x="0.0" g="0.0" b="0.0" rho="1.25"/>
                <iidm:step r="0.0" x="0.0" g="0.0" b="0.0" rho="1.2345678806304932"/>
                <iidm:step r="0.0" x="0.0" g="0.0" b="0.0" rho="1.2195122241973877"/>
                <iidm:step r="0.0" x="0.0" g="0.0" b="0.0" rho="1.2048193216323853"/>
                <iidm:step r="0.0" x="0.0" g="0.0" b="0.0" rho="1.1904761791229248"/>
                <iidm:step r="0.0" x="0.0" g="0.0" b="0.0" rho="1.1764705181121826"/>
                <iidm:step r="0.0" x="0.0" g="0.0" b="0.0" rho="1.1627906560897827"/>
                <iidm:step r="0.0" x="0.0" g="0.0" b="0.0" rho="1.1494252681732178"/>
                <iidm:step r="0.0" x="0.0" g="0.0" b="0.0" rho="1.1363636255264282"/>
                <iidm:step r="0.0" x="0.0" g="0.0" b="0.0" rho="1.1235954761505127"/>
                <iidm:step r="0.0" x="0.0" g="0.0" b="0.0" rho="1.1111111640930176"/>
                <iidm:step r="0.0" x="0.0" g="0.0" b="0.0" rho="1.0989010334014893"/>
                <iidm:step r="0.0" x="0.0" g="0.0" b="0.0" rho="1.08695650100708"/>
                <iidm:step r="0.0" x="0.0" g="0.0" b="0.0" rho="1.0752688646316528"/>
                <iidm:step r="0.0" x="0.0" g="0.0" b="0.0" rho="1.063829779624939"/>
                <iidm:step r="0.0" x="0.0" g="0.0" b="0.0" rho="1.0526316165924072"/>
                <iidm:step r="0.0" x="0.0" g="0.0" b="0.0" rho="1.0416667461395264"/>
                <iidm:step r="0.0" x="0.0" g="0.0" b="0.0" rho="1.0309277772903442"/>
                <iidm:step r="0.0" x="0.0" g="0.0" b="0.0" rho="1.0204081535339355"/>
                <iidm:step r="0.0" x="0.0" g="0.0" b="0.0" rho="1.0101009607315063"/>
                <iidm:step r="0.0" x="0.0" g="0.0" b="0.0" rho="1.0"/>
                <iidm:step r="0.0" x="0.0" g="0.0" b="0.0" rho="0.9900990128517151"/>
                <iidm:step r="0.0" x="0.0" g="0.0" b="0.0" rho="0.9803921580314636"/>
                <iidm:step r="0.0" x="0.0" g="0.0" b="0.0" rho="0.9708738327026367"/>
                <iidm:step r="0.0" x="0.0" g="0.0" b="0.0" rho="0.9615384936332703"/>
                <iidm:step r="0.0" x="0.0" g="0.0" b="0.0" rho="0.9523810148239136"/>
                <iidm:step r="0.0" x="0.0" g="0.0" b="0.0" rho="0.943396270275116"/>
                <iidm:step r="0.0" x="0.0" g="0.0" b="0.0" rho="0.9345793724060059"/>
                <iidm:step r="0.0" x="0.0" g="0.0" b="0.0" rho="0.9259259104728699"/>
                <iidm:step r="0.0" x="0.0" g="0.0" b="0.0" rho="0.9174311757087708"/>
                <iidm:step r="0.0" x="0.0" g="0.0" b="0.0" rho="0.9090908765792847"/>
                <iidm:step r="0.0" x="0.0" g="0.0" b="0.0" rho="0.9009009003639221"/>
                <iidm:step r="0.0" x="0.0" g="0.0" b="0.0" rho="0.8928571343421936"/>
            </iidm:ratioTapChanger>
            <iidm:currentLimits1 permanentLimit="5773.5"/>
            <iidm:currentLimits2 permanentLimit="5773.5"/>
        </iidm:twoWindingsTransformer>
    </iidm:substation>
    <iidm:substation id="_6b684b57-105e-4777-b95c-3f07617803dd" country="FR" tso="RTE">
        <iidm:voltageLevel id="1014_130" nominalV="130.0" highVoltageLimit="136.5" topologyKind="BUS_BREAKER">
            <iidm:busBreakerTopology>
                <iidm:bus id="1014_131" v="137.94382906645387" angle="68.51106060255104"/>
            </iidm:busBreakerTopology>
        </iidm:voltageLevel>
        <iidm:voltageLevel id="BG03__15" nominalV="15.0" highVoltageLimit="15.750001907348633" topologyKind="BUS_BREAKER">
            <iidm:busBreakerTopology>
                <iidm:bus id="BG03__11" v="15.892499923706055" angle="74.52858228535496"/>
            </iidm:busBreakerTopology>
            <iidm:generator id="g03" energySource="HYDRO" minP="0.0" maxP="9999.0" voltageRegulatorOn="true" targetP="550.0" targetV="15.892499923706055" targetQ="20.91320037841797" bus="BG03__11" connectableBus="BG03__11" p="-550.0" q="-20.96612325475981">
                <iidm:property name="genreCvg" value="AUTRE"/>
                <iidm:reactiveCapabilityCurve>
                    <iidm:point p="0.0" minQ="-700.0" maxQ="700.0"/>
                    <iidm:point p="9999.0" minQ="-700.0" maxQ="700.0"/>
                </iidm:reactiveCapabilityCurve>
            </iidm:generator>
        </iidm:voltageLevel>
        <iidm:twoWindingsTransformer id="Tr1014-g3" r="0.0" x="0.048214320093393326" g="0.0" b="0.0" ratedU1="130.0" ratedU2="15.0" voltageLevelId1="1014_130" bus1="1014_131" connectableBus1="1014_131" voltageLevelId2="BG03__15" bus2="BG03__11" connectableBus2="BG03__11" p1="-549.9999979380638" q1="36.86313529686239" p2="549.9999979380636" q2="20.96612325475981">
            <iidm:ratioTapChanger lowTapPosition="0" tapPosition="5" loadTapChangingCapabilities="false">
                <iidm:step r="0.0" x="0.0" g="0.0" b="0.0" rho="1.0526316165924072"/>
                <iidm:step r="0.0" x="0.0" g="0.0" b="0.0" rho="1.0416667461395264"/>
                <iidm:step r="0.0" x="0.0" g="0.0" b="0.0" rho="1.0309277772903442"/>
                <iidm:step r="0.0" x="0.0" g="0.0" b="0.0" rho="1.0204081535339355"/>
                <iidm:step r="0.0" x="0.0" g="0.0" b="0.0" rho="1.0101009607315063"/>
                <iidm:step r="0.0" x="0.0" g="0.0" b="0.0" rho="1.0"/>
                <iidm:step r="0.0" x="0.0" g="0.0" b="0.0" rho="0.9900990128517151"/>
                <iidm:step r="0.0" x="0.0" g="0.0" b="0.0" rho="0.9803921580314636"/>
                <iidm:step r="0.0" x="0.0" g="0.0" b="0.0" rho="0.9708738327026367"/>
                <iidm:step r="0.0" x="0.0" g="0.0" b="0.0" rho="0.9615384936332703"/>
                <iidm:step r="0.0" x="0.0" g="0.0" b="0.0" rho="0.9523810148239136"/>
            </iidm:ratioTapChanger>
            <iidm:currentLimits1 permanentLimit="26943.0"/>
            <iidm:currentLimits2 permanentLimit="26943.0"/>
        </iidm:twoWindingsTransformer>
    </iidm:substation>
    <iidm:substation id="_aa90c941-14e3-4c16-8ed4-513a0206d631" country="FR" tso="RTE">
        <iidm:voltageLevel id="1021_130" nominalV="130.0" highVoltageLimit="136.5" topologyKind="BUS_BREAKER">
            <iidm:busBreakerTopology>
                <iidm:bus id="1021_131" v="134.0405315046026" angle="66.89329003189006"/>
            </iidm:busBreakerTopology>
        </iidm:voltageLevel>
        <iidm:voltageLevel id="BG04__15" nominalV="15.0" highVoltageLimit="15.750001907348633" topologyKind="BUS_BREAKER">
            <iidm:busBreakerTopology>
                <iidm:bus id="BG04__11" v="15.508500099182129" angle="72.2758683921711"/>
            </iidm:busBreakerTopology>
            <iidm:generator id="g04" energySource="HYDRO" minP="0.0" maxP="9999.0" voltageRegulatorOn="true" targetP="400.0" targetV="15.508500099182129" targetQ="30.375099182128906" bus="BG04__11" connectableBus="BG04__11" p="-400.0" q="-30.460806756994707">
                <iidm:property name="genreCvg" value="AUTRE"/>
                <iidm:reactiveCapabilityCurve>
                    <iidm:point p="0.0" minQ="-600.0" maxQ="600.0"/>
                    <iidm:point p="9999.0" minQ="-600.0" maxQ="600.0"/>
                </iidm:reactiveCapabilityCurve>
            </iidm:generator>
        </iidm:voltageLevel>
        <iidm:twoWindingsTransformer id="Tr1021-g4" r="0.0" x="0.056250009685754776" g="0.0" b="0.0" ratedU1="130.0" ratedU2="15.0" voltageLevelId1="1021_130" bus1="1021_131" connectableBus1="1021_131" voltageLevelId2="BG04__15" bus2="BG04__11" connectableBus2="BG04__11" p1="-399.99998855796974" q1="7.176125788810637" p2="399.99998855796974" q2="30.460806756994707">
            <iidm:ratioTapChanger lowTapPosition="0" tapPosition="5" loadTapChangingCapabilities="false">
                <iidm:step r="0.0" x="0.0" g="0.0" b="0.0" rho="1.0526316165924072"/>
                <iidm:step r="0.0" x="0.0" g="0.0" b="0.0" rho="1.0416667461395264"/>
                <iidm:step r="0.0" x="0.0" g="0.0" b="0.0" rho="1.0309277772903442"/>
                <iidm:step r="0.0" x="0.0" g="0.0" b="0.0" rho="1.0204081535339355"/>
                <iidm:step r="0.0" x="0.0" g="0.0" b="0.0" rho="1.0101009607315063"/>
                <iidm:step r="0.0" x="0.0" g="0.0" b="0.0" rho="1.0"/>
                <iidm:step r="0.0" x="0.0" g="0.0" b="0.0" rho="0.9900990128517151"/>
                <iidm:step r="0.0" x="0.0" g="0.0" b="0.0" rho="0.9803921580314636"/>
                <iidm:step r="0.0" x="0.0" g="0.0" b="0.0" rho="0.9708738327026367"/>
                <iidm:step r="0.0" x="0.0" g="0.0" b="0.0" rho="0.9615384936332703"/>
                <iidm:step r="0.0" x="0.0" g="0.0" b="0.0" rho="0.9523810148239136"/>
            </iidm:ratioTapChanger>
            <iidm:currentLimits1 permanentLimit="23094.0"/>
            <iidm:currentLimits2 permanentLimit="23094.0"/>
        </iidm:twoWindingsTransformer>
    </iidm:substation>
    <iidm:substation id="_324bf35a-84bb-4d14-b005-bbaaef147928" country="FR" tso="RTE">
        <iidm:voltageLevel id="1022_130" nominalV="130.0" highVoltageLimit="136.5" topologyKind="BUS_BREAKER">
            <iidm:busBreakerTopology>
                <iidm:bus id="1022_131" v="136.65133903557836" angle="45.20188927161005"/>
            </iidm:busBreakerTopology>
            <iidm:shunt id="1022-Cap" bPerSection="0.002958579920232296" maximumSectionCount="1" currentSectionCount="1" bus="1022_131" connectableBus="1022_131" q="-55.2473038570783">
                <iidm:property name="qMax" value="50"/>
            </iidm:shunt>
        </iidm:voltageLevel>
        <iidm:voltageLevel id="4022_400" nominalV="400.0" highVoltageLimit="420.0" topologyKind="BUS_BREAKER">
            <iidm:busBreakerTopology>
                <iidm:bus id="4022_401" v="397.83993888807487" angle="43.38254651345009"/>
            </iidm:busBreakerTopology>
        </iidm:voltageLevel>
        <iidm:voltageLevel id="B22___20" nominalV="20.0" highVoltageLimit="21.0" topologyKind="BUS_BREAKER">
            <iidm:busBreakerTopology>
                <iidm:bus id="B22___21" v="19.90292989609284" angle="42.352412954982825"/>
            </iidm:busBreakerTopology>
            <iidm:load id="22_1" loadType="UNDEFINED" p0="280.0119934082031" q0="79.90679931640625" bus="B22___21" connectableBus="B22___21" p="280.0119934082031" q="79.90679931640625"/>
        </iidm:voltageLevel>
        <iidm:voltageLevel id="BG05__15" nominalV="15.0" highVoltageLimit="15.750001907348633" topologyKind="BUS_BREAKER">
            <iidm:busBreakerTopology>
                <iidm:bus id="BG05__11" v="15.440999984741211" angle="51.88878539322528"/>
            </iidm:busBreakerTopology>
            <iidm:generator id="g05" energySource="HYDRO" minP="0.0" maxP="9999.0" voltageRegulatorOn="true" targetP="200.0" targetV="15.440999984741211" targetQ="60.0614013671875" bus="BG05__11" connectableBus="BG05__11" p="-200.0" q="-60.22238618807422">
                <iidm:property name="genreCvg" value="AUTRE"/>
                <iidm:reactiveCapabilityCurve>
                    <iidm:point p="0.0" minQ="-250.0" maxQ="250.0"/>
                    <iidm:point p="9999.0" minQ="-250.0" maxQ="250.0"/>
                </iidm:reactiveCapabilityCurve>
            </iidm:generator>
        </iidm:voltageLevel>
        <iidm:twoWindingsTransformer id="Tr1022-4022" r="0.0" x="2.0280842781066895" g="0.0" b="0.0" ratedU1="400.0" ratedU2="130.0" voltageLevelId1="4022_400" bus1="4022_401" connectableBus1="4022_401" voltageLevelId2="1022_130" bus2="1022_131" connectableBus2="1022_131" p1="-297.4100320329548" q1="167.7916060446645" p2="297.4100320329549" q2="-155.55694144643905">
            <iidm:ratioTapChanger lowTapPosition="0" tapPosition="3" loadTapChangingCapabilities="false">
                <iidm:step r="0.0" x="0.0" g="0.0" b="0.0" rho="1.1111111640930176"/>
                <iidm:step r="0.0" x="0.0" g="0.0" b="0.0" rho="1.0989010334014893"/>
                <iidm:step r="0.0" x="0.0" g="0.0" b="0.0" rho="1.08695650100708"/>
                <iidm:step r="0.0" x="0.0" g="0.0" b="0.0" rho="1.0752688646316528"/>
                <iidm:step r="0.0" x="0.0" g="0.0" b="0.0" rho="1.063829779624939"/>
                <iidm:step r="0.0" x="0.0" g="0.0" b="0.0" rho="1.0526316165924072"/>
                <iidm:step r="0.0" x="0.0" g="0.0" b="0.0" rho="1.0416667461395264"/>
                <iidm:step r="0.0" x="0.0" g="0.0" b="0.0" rho="1.0309277772903442"/>
                <iidm:step r="0.0" x="0.0" g="0.0" b="0.0" rho="1.0204081535339355"/>
                <iidm:step r="0.0" x="0.0" g="0.0" b="0.0" rho="1.0101009607315063"/>
                <iidm:step r="0.0" x="0.0" g="0.0" b="0.0" rho="1.0"/>
                <iidm:step r="0.0" x="0.0" g="0.0" b="0.0" rho="0.9900990128517151"/>
                <iidm:step r="0.0" x="0.0" g="0.0" b="0.0" rho="0.9803921580314636"/>
                <iidm:step r="0.0" x="0.0" g="0.0" b="0.0" rho="0.9708738327026367"/>
                <iidm:step r="0.0" x="0.0" g="0.0" b="0.0" rho="0.9615384936332703"/>
                <iidm:step r="0.0" x="0.0" g="0.0" b="0.0" rho="0.9523810148239136"/>
                <iidm:step r="0.0" x="0.0" g="0.0" b="0.0" rho="0.943396270275116"/>
                <iidm:step r="0.0" x="0.0" g="0.0" b="0.0" rho="0.9345793724060059"/>
                <iidm:step r="0.0" x="0.0" g="0.0" b="0.0" rho="0.9259259104728699"/>
                <iidm:step r="0.0" x="0.0" g="0.0" b="0.0" rho="0.9174311757087708"/>
                <iidm:step r="0.0" x="0.0" g="0.0" b="0.0" rho="0.9090908765792847"/>
            </iidm:ratioTapChanger>
            <iidm:currentLimits1 permanentLimit="3700.820068359375"/>
            <iidm:currentLimits2 permanentLimit="3700.820068359375"/>
        </iidm:twoWindingsTransformer>
        <iidm:twoWindingsTransformer id="Tr1022-g5" r="0.0" x="0.13500003516674042" g="0.0" b="0.0" ratedU1="130.0" ratedU2="15.0" voltageLevelId1="1022_130" bus1="1022_131" connectableBus1="1022_131" voltageLevelId2="BG05__15" bus2="BG05__11" connectableBus2="BG05__11" p1="-199.9998434370704" q1="-35.52021466816097" p2="199.99984343707038" q2="60.22238618807422">
            <iidm:ratioTapChanger lowTapPosition="0" tapPosition="10" loadTapChangingCapabilities="false">
                <iidm:step r="0.0" x="0.0" g="0.0" b="0.0" rho="1.0526316165924072"/>
                <iidm:step r="0.0" x="0.0" g="0.0" b="0.0" rho="1.0416667461395264"/>
                <iidm:step r="0.0" x="0.0" g="0.0" b="0.0" rho="1.0309277772903442"/>
                <iidm:step r="0.0" x="0.0" g="0.0" b="0.0" rho="1.0204081535339355"/>
                <iidm:step r="0.0" x="0.0" g="0.0" b="0.0" rho="1.0101009607315063"/>
                <iidm:step r="0.0" x="0.0" g="0.0" b="0.0" rho="1.0"/>
                <iidm:step r="0.0" x="0.0" g="0.0" b="0.0" rho="0.9900990128517151"/>
                <iidm:step r="0.0" x="0.0" g="0.0" b="0.0" rho="0.9803921580314636"/>
                <iidm:step r="0.0" x="0.0" g="0.0" b="0.0" rho="0.9708738327026367"/>
                <iidm:step r="0.0" x="0.0" g="0.0" b="0.0" rho="0.9615384936332703"/>
                <iidm:step r="0.0" x="0.0" g="0.0" b="0.0" rho="0.9523810148239136"/>
            </iidm:ratioTapChanger>
            <iidm:currentLimits1 permanentLimit="9622.5"/>
            <iidm:currentLimits2 permanentLimit="9622.5"/>
        </iidm:twoWindingsTransformer>
        <iidm:twoWindingsTransformer id="Tr22-1022" r="0.0" x="0.07142866402864456" g="0.0" b="0.0" ratedU1="130.0" ratedU2="20.0" voltageLevelId1="1022_130" bus1="1022_131" connectableBus1="1022_131" voltageLevelId2="B22___20" bus2="B22___21" connectableBus2="B22___21" p1="280.01098799752344" q1="95.19571868884191" p2="-280.01098799752344" q2="-79.9063631001364">
            <iidm:ratioTapChanger regulating="true" lowTapPosition="0" tapPosition="24" loadTapChangingCapabilities="true" targetV="20.0">
                <iidm:terminalRef id="Tr22-1022" side="TWO"/>
                <iidm:step r="0.0" x="0.0" g="0.0" b="0.0" rho="1.25"/>
                <iidm:step r="0.0" x="0.0" g="0.0" b="0.0" rho="1.2345678806304932"/>
                <iidm:step r="0.0" x="0.0" g="0.0" b="0.0" rho="1.2195122241973877"/>
                <iidm:step r="0.0" x="0.0" g="0.0" b="0.0" rho="1.2048193216323853"/>
                <iidm:step r="0.0" x="0.0" g="0.0" b="0.0" rho="1.1904761791229248"/>
                <iidm:step r="0.0" x="0.0" g="0.0" b="0.0" rho="1.1764705181121826"/>
                <iidm:step r="0.0" x="0.0" g="0.0" b="0.0" rho="1.1627906560897827"/>
                <iidm:step r="0.0" x="0.0" g="0.0" b="0.0" rho="1.1494252681732178"/>
                <iidm:step r="0.0" x="0.0" g="0.0" b="0.0" rho="1.1363636255264282"/>
                <iidm:step r="0.0" x="0.0" g="0.0" b="0.0" rho="1.1235954761505127"/>
                <iidm:step r="0.0" x="0.0" g="0.0" b="0.0" rho="1.1111111640930176"/>
                <iidm:step r="0.0" x="0.0" g="0.0" b="0.0" rho="1.0989010334014893"/>
                <iidm:step r="0.0" x="0.0" g="0.0" b="0.0" rho="1.08695650100708"/>
                <iidm:step r="0.0" x="0.0" g="0.0" b="0.0" rho="1.0752688646316528"/>
                <iidm:step r="0.0" x="0.0" g="0.0" b="0.0" rho="1.063829779624939"/>
                <iidm:step r="0.0" x="0.0" g="0.0" b="0.0" rho="1.0526316165924072"/>
                <iidm:step r="0.0" x="0.0" g="0.0" b="0.0" rho="1.0416667461395264"/>
                <iidm:step r="0.0" x="0.0" g="0.0" b="0.0" rho="1.0309277772903442"/>
                <iidm:step r="0.0" x="0.0" g="0.0" b="0.0" rho="1.0204081535339355"/>
                <iidm:step r="0.0" x="0.0" g="0.0" b="0.0" rho="1.0101009607315063"/>
                <iidm:step r="0.0" x="0.0" g="0.0" b="0.0" rho="1.0"/>
                <iidm:step r="0.0" x="0.0" g="0.0" b="0.0" rho="0.9900990128517151"/>
                <iidm:step r="0.0" x="0.0" g="0.0" b="0.0" rho="0.9803921580314636"/>
                <iidm:step r="0.0" x="0.0" g="0.0" b="0.0" rho="0.9708738327026367"/>
                <iidm:step r="0.0" x="0.0" g="0.0" b="0.0" rho="0.9615384936332703"/>
                <iidm:step r="0.0" x="0.0" g="0.0" b="0.0" rho="0.9523810148239136"/>
                <iidm:step r="0.0" x="0.0" g="0.0" b="0.0" rho="0.943396270275116"/>
                <iidm:step r="0.0" x="0.0" g="0.0" b="0.0" rho="0.9345793724060059"/>
                <iidm:step r="0.0" x="0.0" g="0.0" b="0.0" rho="0.9259259104728699"/>
                <iidm:step r="0.0" x="0.0" g="0.0" b="0.0" rho="0.9174311757087708"/>
                <iidm:step r="0.0" x="0.0" g="0.0" b="0.0" rho="0.9090908765792847"/>
                <iidm:step r="0.0" x="0.0" g="0.0" b="0.0" rho="0.9009009003639221"/>
                <iidm:step r="0.0" x="0.0" g="0.0" b="0.0" rho="0.8928571343421936"/>
            </iidm:ratioTapChanger>
            <iidm:currentLimits1 permanentLimit="16165.7998046875"/>
            <iidm:currentLimits2 permanentLimit="16165.7998046875"/>
        </iidm:twoWindingsTransformer>
    </iidm:substation>
    <iidm:substation id="_22d093c3-f6da-43b4-9b8d-c13a0e2906eb" country="FR" tso="RTE">
        <iidm:voltageLevel id="1041_130" nominalV="130.0" highVoltageLimit="136.5" topologyKind="BUS_BREAKER">
            <iidm:busBreakerTopology>
                <iidm:bus id="1041_131" v="131.6001151763314" angle="-17.645870054597122"/>
            </iidm:busBreakerTopology>
            <iidm:shunt id="1041-Cap" bPerSection="0.014792900532484055" maximumSectionCount="1" currentSectionCount="1" bus="1041_131" connectableBus="1041_131" q="-256.19218388411133">
                <iidm:property name="qMax" value="250"/>
            </iidm:shunt>
        </iidm:voltageLevel>
        <iidm:voltageLevel id="B01___20" nominalV="20.0" highVoltageLimit="21.0" topologyKind="BUS_BREAKER">
            <iidm:busBreakerTopology>
                <iidm:bus id="B01___21" v="19.974081981985037" angle="-20.480554131088862"/>
            </iidm:busBreakerTopology>
            <iidm:load id="01_1" loadType="UNDEFINED" p0="600.0" q0="148.1999969482422" bus="B01___21" connectableBus="B01___21" p="600.0" q="148.1999969482422"/>
        </iidm:voltageLevel>
        <iidm:twoWindingsTransformer id="Tr1-1041" r="0.0" x="0.03333326056599617" g="0.0" b="0.0" ratedU1="130.0" ratedU2="20.0" voltageLevelId1="1041_130" bus1="1041_131" connectableBus1="1041_131" voltageLevelId2="B01___20" bus2="B01___21" connectableBus2="B01___21" p1="599.9800198294247" q1="180.108437514972" p2="-599.9800198294247" q2="-148.19764039049966">
            <iidm:ratioTapChanger regulating="true" lowTapPosition="0" tapPosition="20" loadTapChangingCapabilities="true" targetV="20.0">
                <iidm:terminalRef id="Tr1-1041" side="TWO"/>
                <iidm:step r="0.0" x="0.0" g="0.0" b="0.0" rho="1.25"/>
                <iidm:step r="0.0" x="0.0" g="0.0" b="0.0" rho="1.2345678806304932"/>
                <iidm:step r="0.0" x="0.0" g="0.0" b="0.0" rho="1.2195122241973877"/>
                <iidm:step r="0.0" x="0.0" g="0.0" b="0.0" rho="1.2048193216323853"/>
                <iidm:step r="0.0" x="0.0" g="0.0" b="0.0" rho="1.1904761791229248"/>
                <iidm:step r="0.0" x="0.0" g="0.0" b="0.0" rho="1.1764705181121826"/>
                <iidm:step r="0.0" x="0.0" g="0.0" b="0.0" rho="1.1627906560897827"/>
                <iidm:step r="0.0" x="0.0" g="0.0" b="0.0" rho="1.1494252681732178"/>
                <iidm:step r="0.0" x="0.0" g="0.0" b="0.0" rho="1.1363636255264282"/>
                <iidm:step r="0.0" x="0.0" g="0.0" b="0.0" rho="1.1235954761505127"/>
                <iidm:step r="0.0" x="0.0" g="0.0" b="0.0" rho="1.1111111640930176"/>
                <iidm:step r="0.0" x="0.0" g="0.0" b="0.0" rho="1.0989010334014893"/>
                <iidm:step r="0.0" x="0.0" g="0.0" b="0.0" rho="1.08695650100708"/>
                <iidm:step r="0.0" x="0.0" g="0.0" b="0.0" rho="1.0752688646316528"/>
                <iidm:step r="0.0" x="0.0" g="0.0" b="0.0" rho="1.063829779624939"/>
                <iidm:step r="0.0" x="0.0" g="0.0" b="0.0" rho="1.0526316165924072"/>
                <iidm:step r="0.0" x="0.0" g="0.0" b="0.0" rho="1.0416667461395264"/>
                <iidm:step r="0.0" x="0.0" g="0.0" b="0.0" rho="1.0309277772903442"/>
                <iidm:step r="0.0" x="0.0" g="0.0" b="0.0" rho="1.0204081535339355"/>
                <iidm:step r="0.0" x="0.0" g="0.0" b="0.0" rho="1.0101009607315063"/>
                <iidm:step r="0.0" x="0.0" g="0.0" b="0.0" rho="1.0"/>
                <iidm:step r="0.0" x="0.0" g="0.0" b="0.0" rho="0.9900990128517151"/>
                <iidm:step r="0.0" x="0.0" g="0.0" b="0.0" rho="0.9803921580314636"/>
                <iidm:step r="0.0" x="0.0" g="0.0" b="0.0" rho="0.9708738327026367"/>
                <iidm:step r="0.0" x="0.0" g="0.0" b="0.0" rho="0.9615384936332703"/>
                <iidm:step r="0.0" x="0.0" g="0.0" b="0.0" rho="0.9523810148239136"/>
                <iidm:step r="0.0" x="0.0" g="0.0" b="0.0" rho="0.943396270275116"/>
                <iidm:step r="0.0" x="0.0" g="0.0" b="0.0" rho="0.9345793724060059"/>
                <iidm:step r="0.0" x="0.0" g="0.0" b="0.0" rho="0.9259259104728699"/>
                <iidm:step r="0.0" x="0.0" g="0.0" b="0.0" rho="0.9174311757087708"/>
                <iidm:step r="0.0" x="0.0" g="0.0" b="0.0" rho="0.9090908765792847"/>
                <iidm:step r="0.0" x="0.0" g="0.0" b="0.0" rho="0.9009009003639221"/>
                <iidm:step r="0.0" x="0.0" g="0.0" b="0.0" rho="0.8928571343421936"/>
            </iidm:ratioTapChanger>
            <iidm:currentLimits1 permanentLimit="34641.0"/>
            <iidm:currentLimits2 permanentLimit="34641.0"/>
        </iidm:twoWindingsTransformer>
    </iidm:substation>
    <iidm:substation id="_1a6fe4b6-a0fc-47fa-8946-62398ab9ae75" country="FR" tso="RTE">
        <iidm:voltageLevel id="1042_130" nominalV="130.0" highVoltageLimit="136.5" topologyKind="BUS_BREAKER">
            <iidm:busBreakerTopology>
                <iidm:bus id="1042_131" v="131.88067906006435" angle="-3.157865608402211"/>
            </iidm:busBreakerTopology>
        </iidm:voltageLevel>
        <iidm:voltageLevel id="B02___20" nominalV="20.0" highVoltageLimit="21.0" topologyKind="BUS_BREAKER">
            <iidm:busBreakerTopology>
                <iidm:bus id="B02___21" v="20.023127915283876" angle="-6.262370036298462"/>
            </iidm:busBreakerTopology>
            <iidm:load id="02_1" loadType="UNDEFINED" p0="330.0260009765625" q0="71.01129913330078" bus="B02___21" connectableBus="B02___21" p="330.0260009765625" q="71.01129913330078"/>
        </iidm:voltageLevel>
        <iidm:voltageLevel id="BG21__15" nominalV="15.0" highVoltageLimit="15.750001907348633" topologyKind="BUS_BREAKER">
            <iidm:busBreakerTopology>
                <iidm:bus id="BG21__11" v="14.492383987454486" angle="-3.157865608402211"/>
            </iidm:busBreakerTopology>
            <iidm:generator id="g21" energySource="OTHER" minP="0.0" maxP="9999.0" voltageRegulatorOn="true" targetP="0.0" targetV="15.255000114440918" targetQ="0.0" bus="BG21__11" connectableBus="BG21__11" p="-0.0" q="-0.0">
                <iidm:property name="genreCvg" value="AUTRE"/>
                <iidm:reactiveCapabilityCurve>
                    <iidm:point p="0.0" minQ="-300.0" maxQ="300.0"/>
                    <iidm:point p="9999.0" minQ="-300.0" maxQ="300.0"/>
                </iidm:reactiveCapabilityCurve>
            </iidm:generator>
        </iidm:voltageLevel>
        <iidm:voltageLevel id="BG06__15" nominalV="15.0" highVoltageLimit="15.750001907348633" topologyKind="BUS_BREAKER">
            <iidm:busBreakerTopology>
                <iidm:bus id="BG06__11" v="15.126001358032227" angle="4.806927726202324"/>
            </iidm:busBreakerTopology>
            <iidm:generator id="g06" energySource="THERMAL" minP="0.0" maxP="9999.0" voltageRegulatorOn="true" targetP="360.0" targetV="15.126001358032227" targetQ="138.60000610351562" bus="BG06__11" connectableBus="BG06__11" p="-360.0" q="-138.65190580938025">
                <iidm:property name="genreCvg" value="AUTRE"/>
                <iidm:reactiveCapabilityCurve>
                    <iidm:point p="0.0" minQ="-400.0" maxQ="400.0"/>
                    <iidm:point p="9999.0" minQ="-400.0" maxQ="400.0"/>
                </iidm:reactiveCapabilityCurve>
            </iidm:generator>
        </iidm:voltageLevel>
        <iidm:twoWindingsTransformer id="Tr1042-g6" r="0.0" x="0.08437501639127731" g="0.0" b="0.0" ratedU1="130.0" ratedU2="15.0" voltageLevelId1="1042_130" bus1="1042_131" connectableBus1="1042_131" voltageLevelId2="BG06__15" bus2="BG06__11" connectableBus2="BG06__11" p1="-359.99984453971535" q1="-83.76872533301434" p2="359.99984453971535" q2="138.65190580938025">
            <iidm:ratioTapChanger lowTapPosition="0" tapPosition="10" loadTapChangingCapabilities="false">
                <iidm:step r="0.0" x="0.0" g="0.0" b="0.0" rho="1.0526316165924072"/>
                <iidm:step r="0.0" x="0.0" g="0.0" b="0.0" rho="1.0416667461395264"/>
                <iidm:step r="0.0" x="0.0" g="0.0" b="0.0" rho="1.0309277772903442"/>
                <iidm:step r="0.0" x="0.0" g="0.0" b="0.0" rho="1.0204081535339355"/>
                <iidm:step r="0.0" x="0.0" g="0.0" b="0.0" rho="1.0101009607315063"/>
                <iidm:step r="0.0" x="0.0" g="0.0" b="0.0" rho="1.0"/>
                <iidm:step r="0.0" x="0.0" g="0.0" b="0.0" rho="0.9900990128517151"/>
                <iidm:step r="0.0" x="0.0" g="0.0" b="0.0" rho="0.9803921580314636"/>
                <iidm:step r="0.0" x="0.0" g="0.0" b="0.0" rho="0.9708738327026367"/>
                <iidm:step r="0.0" x="0.0" g="0.0" b="0.0" rho="0.9615384936332703"/>
                <iidm:step r="0.0" x="0.0" g="0.0" b="0.0" rho="0.9523810148239136"/>
            </iidm:ratioTapChanger>
            <iidm:currentLimits1 permanentLimit="15395.9990234375"/>
            <iidm:currentLimits2 permanentLimit="15395.9990234375"/>
        </iidm:twoWindingsTransformer>
        <iidm:twoWindingsTransformer id="Tr1042-g21" r="0.0" x="0.07499995082616806" g="0.0" b="0.0" ratedU1="130.0" ratedU2="15.0" voltageLevelId1="1042_130" bus1="1042_131" connectableBus1="1042_131" voltageLevelId2="BG21__15" bus2="BG21__11" connectableBus2="BG21__11" p1="0.0" q1="-1.39700302720373E-4" p2="0.0" q2="1.3970030968946267E-4">
            <iidm:ratioTapChanger lowTapPosition="0" tapPosition="10" loadTapChangingCapabilities="false">
                <iidm:step r="0.0" x="0.0" g="0.0" b="0.0" rho="1.0526316165924072"/>
                <iidm:step r="0.0" x="0.0" g="0.0" b="0.0" rho="1.0416667461395264"/>
                <iidm:step r="0.0" x="0.0" g="0.0" b="0.0" rho="1.0309277772903442"/>
                <iidm:step r="0.0" x="0.0" g="0.0" b="0.0" rho="1.0204081535339355"/>
                <iidm:step r="0.0" x="0.0" g="0.0" b="0.0" rho="1.0101009607315063"/>
                <iidm:step r="0.0" x="0.0" g="0.0" b="0.0" rho="1.0"/>
                <iidm:step r="0.0" x="0.0" g="0.0" b="0.0" rho="0.9900990128517151"/>
                <iidm:step r="0.0" x="0.0" g="0.0" b="0.0" rho="0.9803921580314636"/>
                <iidm:step r="0.0" x="0.0" g="0.0" b="0.0" rho="0.9708738327026367"/>
                <iidm:step r="0.0" x="0.0" g="0.0" b="0.0" rho="0.9615384936332703"/>
                <iidm:step r="0.0" x="0.0" g="0.0" b="0.0" rho="0.9523810148239136"/>
            </iidm:ratioTapChanger>
            <iidm:currentLimits1 permanentLimit="11547.0"/>
            <iidm:currentLimits2 permanentLimit="11547.0"/>
        </iidm:twoWindingsTransformer>
        <iidm:twoWindingsTransformer id="Tr2-1042" r="0.0" x="0.06666676700115204" g="0.0" b="0.0" ratedU1="130.0" ratedU2="20.0" voltageLevelId1="1042_130" bus1="1042_131" connectableBus1="1042_131" voltageLevelId2="B02___20" bus2="B02___21" connectableBus2="B02___21" p1="330.02547827199817" q1="89.96063221614207" p2="-330.02547827199817" q2="-71.01122006374666">
            <iidm:ratioTapChanger regulating="true" lowTapPosition="0" tapPosition="20" loadTapChangingCapabilities="true" targetV="20.0">
                <iidm:terminalRef id="Tr2-1042" side="TWO"/>
                <iidm:step r="0.0" x="0.0" g="0.0" b="0.0" rho="1.25"/>
                <iidm:step r="0.0" x="0.0" g="0.0" b="0.0" rho="1.2345678806304932"/>
                <iidm:step r="0.0" x="0.0" g="0.0" b="0.0" rho="1.2195122241973877"/>
                <iidm:step r="0.0" x="0.0" g="0.0" b="0.0" rho="1.2048193216323853"/>
                <iidm:step r="0.0" x="0.0" g="0.0" b="0.0" rho="1.1904761791229248"/>
                <iidm:step r="0.0" x="0.0" g="0.0" b="0.0" rho="1.1764705181121826"/>
                <iidm:step r="0.0" x="0.0" g="0.0" b="0.0" rho="1.1627906560897827"/>
                <iidm:step r="0.0" x="0.0" g="0.0" b="0.0" rho="1.1494252681732178"/>
                <iidm:step r="0.0" x="0.0" g="0.0" b="0.0" rho="1.1363636255264282"/>
                <iidm:step r="0.0" x="0.0" g="0.0" b="0.0" rho="1.1235954761505127"/>
                <iidm:step r="0.0" x="0.0" g="0.0" b="0.0" rho="1.1111111640930176"/>
                <iidm:step r="0.0" x="0.0" g="0.0" b="0.0" rho="1.0989010334014893"/>
                <iidm:step r="0.0" x="0.0" g="0.0" b="0.0" rho="1.08695650100708"/>
                <iidm:step r="0.0" x="0.0" g="0.0" b="0.0" rho="1.0752688646316528"/>
                <iidm:step r="0.0" x="0.0" g="0.0" b="0.0" rho="1.063829779624939"/>
                <iidm:step r="0.0" x="0.0" g="0.0" b="0.0" rho="1.0526316165924072"/>
                <iidm:step r="0.0" x="0.0" g="0.0" b="0.0" rho="1.0416667461395264"/>
                <iidm:step r="0.0" x="0.0" g="0.0" b="0.0" rho="1.0309277772903442"/>
                <iidm:step r="0.0" x="0.0" g="0.0" b="0.0" rho="1.0204081535339355"/>
                <iidm:step r="0.0" x="0.0" g="0.0" b="0.0" rho="1.0101009607315063"/>
                <iidm:step r="0.0" x="0.0" g="0.0" b="0.0" rho="1.0"/>
                <iidm:step r="0.0" x="0.0" g="0.0" b="0.0" rho="0.9900990128517151"/>
                <iidm:step r="0.0" x="0.0" g="0.0" b="0.0" rho="0.9803921580314636"/>
                <iidm:step r="0.0" x="0.0" g="0.0" b="0.0" rho="0.9708738327026367"/>
                <iidm:step r="0.0" x="0.0" g="0.0" b="0.0" rho="0.9615384936332703"/>
                <iidm:step r="0.0" x="0.0" g="0.0" b="0.0" rho="0.9523810148239136"/>
                <iidm:step r="0.0" x="0.0" g="0.0" b="0.0" rho="0.943396270275116"/>
                <iidm:step r="0.0" x="0.0" g="0.0" b="0.0" rho="0.9345793724060059"/>
                <iidm:step r="0.0" x="0.0" g="0.0" b="0.0" rho="0.9259259104728699"/>
                <iidm:step r="0.0" x="0.0" g="0.0" b="0.0" rho="0.9174311757087708"/>
                <iidm:step r="0.0" x="0.0" g="0.0" b="0.0" rho="0.9090908765792847"/>
                <iidm:step r="0.0" x="0.0" g="0.0" b="0.0" rho="0.9009009003639221"/>
                <iidm:step r="0.0" x="0.0" g="0.0" b="0.0" rho="0.8928571343421936"/>
            </iidm:ratioTapChanger>
            <iidm:currentLimits1 permanentLimit="17320.5"/>
            <iidm:currentLimits2 permanentLimit="17320.5"/>
        </iidm:twoWindingsTransformer>
    </iidm:substation>
    <iidm:substation id="_24b8bbc5-1f71-4d9f-a22f-2c1a9dc6b44b" country="FR" tso="RTE">
        <iidm:voltageLevel id="1043_130" nominalV="130.0" highVoltageLimit="136.5" topologyKind="BUS_BREAKER">
            <iidm:busBreakerTopology>
                <iidm:bus id="1043_131" v="133.55576571540416" angle="-12.54586358804057"/>
            </iidm:busBreakerTopology>
            <iidm:shunt id="1043-Cap" bPerSection="0.011834300123155117" maximumSectionCount="1" currentSectionCount="1" bus="1043_131" connectableBus="1043_131" q="-211.09009834516988">
                <iidm:property name="qMax" value="200"/>
            </iidm:shunt>
        </iidm:voltageLevel>
        <iidm:voltageLevel id="B03___20" nominalV="20.0" highVoltageLimit="21.0" topologyKind="BUS_BREAKER">
            <iidm:busBreakerTopology>
                <iidm:bus id="B03___21" v="19.94650031031018" angle="-15.739747936830138"/>
            </iidm:busBreakerTopology>
            <iidm:load id="03_1" loadType="UNDEFINED" p0="260.0" q0="83.84239959716797" bus="B03___21" connectableBus="B03___21" p="260.0" q="83.84239959716797"/>
        </iidm:voltageLevel>
        <iidm:voltageLevel id="BG07__15" nominalV="15.0" highVoltageLimit="15.750001907348633" topologyKind="BUS_BREAKER">
            <iidm:busBreakerTopology>
                <iidm:bus id="BG07__11" v="15.211499214172363" angle="-4.726117581063873"/>
            </iidm:busBreakerTopology>
            <iidm:generator id="g07" energySource="THERMAL" minP="0.0" maxP="9999.0" voltageRegulatorOn="true" targetP="180.0" targetV="15.211499214172363" targetQ="60.400001525878906" bus="BG07__11" connectableBus="BG07__11" p="-180.0" q="-60.53199541055947">
                <iidm:property name="genreCvg" value="AUTRE"/>
                <iidm:reactiveCapabilityCurve>
                    <iidm:point p="0.0" minQ="-200.0" maxQ="200.0"/>
                    <iidm:point p="9999.0" minQ="-200.0" maxQ="200.0"/>
                </iidm:reactiveCapabilityCurve>
...